$# LS-DYNA Keyword file created by LS-PrePost(R) 2026 R1 (v4.13.4DP) - 02Jan2026
$# Created on May-22-2026 (16:46:46)
*KEYWORD
*TITLE
$#                                                                         title
LS-DYNA keyword deck by LS-PrePost
*PART
$#                                                                         title
sup
$#     pid     secid       mid     eosid      hgid      grav    adpopt      tmid
         2         1         2         0         0         0         0         0
*SECTION_SOLID
$#   secid    elform       aet         -         -         -    cohoff   gaskett
         1         3         0                                     0.0       0.0
*MAT_ELASTIC
$#     mid        ro         e        pr        da        db  not used  not used
         2     0.001      0.01      0.45       0.0       0.0         0         0
*PART
$#                                                                         title
inf
$#     pid     secid       mid     eosid      hgid      grav    adpopt      tmid
         3         1         3         0         0         0         0         0
*MAT_ELASTIC
$#     mid        ro         e        pr        da        db  not used  not used
         3     0.001     0.001      0.45       0.0       0.0         0         0
*PART
$#                                                                         title
cylinder
$#     pid     secid       mid     eosid      hgid      grav    adpopt      tmid
         4         1         1         0         0         0         0         0
*MAT_RIGID
$#     mid        ro         e        pr         n    couple         m     alias
         1     0.006      10.0      0.45       0.0       0.0       0.0                    
$#     cmo      con1      con2    spcnid      xspc      yspc      zspc
       1.0         4         7         0       0.0       0.0       0.0
$#lco or a1        a2        a3        v1        v2        v3    bndlco
       0.0       0.0       0.0       0.0       0.0       0.0         0
*ELEMENT_SOLID
$#   eid     pid      n1      n2      n3      n4      n5      n6      n7      n8
    1001       2    1332    1333    1354    1353    1773    1774    1795    1794
    1002       2    1333    1334    1355    1354    1774    1775    1796    1795
    1003       2    1334    1335    1356    1355    1775    1776    1797    1796
    1004       2    1335    1336    1357    1356    1776    1777    1798    1797
    1005       2    1336    1337    1358    1357    1777    1778    1799    1798
    1006       2    1337    1338    1359    1358    1778    1779    1800    1799
    1007       2    1338    1339    1360    1359    1779    1780    1801    1800
    1008       2    1339    1340    1361    1360    1780    1781    1802    1801
    1009       2    1340    1341    1362    1361    1781    1782    1803    1802
    1010       2    1341    1342    1363    1362    1782    1783    1804    1803
    1011       2    1342    1343    1364    1363    1783    1784    1805    1804
    1012       2    1343    1344    1365    1364    1784    1785    1806    1805
    1013       2    1344    1345    1366    1365    1785    1786    1807    1806
    1014       2    1345    1346    1367    1366    1786    1787    1808    1807
    1015       2    1346    1347    1368    1367    1787    1788    1809    1808
    1016       2    1347    1348    1369    1368    1788    1789    1810    1809
    1017       2    1348    1349    1370    1369    1789    1790    1811    1810
    1018       2    1349    1350    1371    1370    1790    1791    1812    1811
    1019       2    1350    1351    1372    1371    1791    1792    1813    1812
    1020       2    1351    1352    1373    1372    1792    1793    1814    1813
$ ... 5305 like lines cut
*NODE
$#   nid               x               y               z      tc      rc
    1332           -50.0             0.0           -20.0       0       0
    1333           -45.0             0.0           -20.0       0       0
    1334           -40.0             0.0           -20.0       0       0
    1335           -35.0             0.0           -20.0       0       0
    1336           -30.0             0.0           -20.0       0       0
    1337           -25.0             0.0           -20.0       0       0
    1338           -20.0             0.0           -20.0       0       0
    1339           -15.0             0.0           -20.0       0       0
    1340           -10.0             0.0           -20.0       0       0
    1341            -5.0             0.0           -20.0       0       0
    1342             0.0             0.0           -20.0       0       0
    1343             5.0             0.0           -20.0       0       0
    1344            10.0             0.0           -20.0       0       0
    1345            15.0             0.0           -20.0       0       0
    1346            20.0             0.0           -20.0       0       0
    1347            25.0             0.0           -20.0       0       0
    1348            30.0             0.0           -20.0       0       0
    1349            35.0             0.0           -20.0       0       0
    1350            40.0             0.0           -20.0       0       0
    1351            45.0             0.0           -20.0       0       0
$ ... 6409 like lines cut
*BOUNDARY_PRESCRIBED_MOTION_RIGID
$#     pid       dof       vad      lcid        sf       vid     death     birth
         4         4         2         1       1.5         11.00000E28       0.0
*BOUNDARY_SPC_SET
$#    nsid       cid      dofx      dofy      dofz     dofrx     dofry     dofrz
         1         0         1         1         1         0         0         0
*SET_NODE_LIST
$#     sid       da1       da2       da3       da4    solver       its         -
         1       0.0       0.0       0.0       0.0MECH               1          
$#    nid1      nid2      nid3      nid4      nid5      nid6      nid7      nid8
      3537      3538      3539      3540      3541      3542      3543      3544
      3545      3546      3547      3548      3549      3550      3551      3552
      3553      3554      3555      3556      3557      3558      3559      3560
      3561      3562      3563      3564      3565      3566      3567      3568
      3569      3570      3571      3572      3573      3574      3575      3576
      3577      3578      3579      3580      3581      3582      3583      3584
      3585      3586      3587      3588      3589      3590      3591      3592
      3593      3594      3595      3596      3597      3598      3599      3600
      3601      3602      3603      3604      3605      3606      3607      3608
      3609      3610      3611      3612      3613      3614      3615      3616
      3617      3618      3619      3620      3621      3622      3623      3624
      3625      3626      3627      3628      3629      3630      3631      3632
      3633      3634      3635      3636      3637      3638      3639      3640
      3641      3642      3643      3644      3645      3646      3647      3648
      3649      3650      3651      3652      3653      3654      3655      3656
      3657      3658      3659      3660      3661      3662      3663      3664
      3665      3666      3667      3668      3669      3670      3671      3672
      3673      3674      3675      3676      3677      3678      3679      3680
      3681      3682      3683      3684      3685      3686      3687      3688
      3689      3690      3691      3692      3693      3694      3695      3696
$ ... 36 like lines cut
*CONTACT_AUTOMATIC_SURFACE_TO_SURFACE
$#     cid                                                                 title
$#   surfa     surfb  surfatyp  surfbtyp   saboxid   sbboxid      sapr      sbpr
         1         2         0         0         0         0         0         0
$#      fs        fd        dc        vc       vdc    penchk        bt        dt
       0.0       0.0       0.0       0.0       0.0         0       0.01.00000E20
$#    sfsa      sfsb      sast      sbst     sfsat     sfsbt       fsf       vsf
       0.1       0.1       0.0       0.0       1.0       1.0       1.0       1.0
$#    soft    sofscl    lcidab    maxpar     sbopt     depth     bsort    frcfrq
         2       0.1         0     1.025         2         2         0         1
*SET_SEGMENT
$#     sid       da1       da2       da3       da4    solver       its         -
         1       0.0       0.0       0.0       0.0MECH               0          
$#      n1        n2        n3        n4        a1        a2        a3        a4
      3147      3146      3125      3126       0.0       0.0       0.0       0.0
      3148      3147      3126      3127       0.0       0.0       0.0       0.0
      3149      3148      3127      3128       0.0       0.0       0.0       0.0
      3150      3149      3128      3129       0.0       0.0       0.0       0.0
      3126      3125      3104      3105       0.0       0.0       0.0       0.0
      3127      3126      3105      3106       0.0       0.0       0.0       0.0
      3128      3127      3106      3107       0.0       0.0       0.0       0.0
      3129      3128      3107      3108       0.0       0.0       0.0       0.0
*SET_SEGMENT
$#     sid       da1       da2       da3       da4    solver       its         -
         2       0.0       0.0       0.0       0.0MECH               0          
$#      n1        n2        n3        n4        a1        a2        a3        a4
      7506      7507      7513      7512       0.0       0.0       0.0       0.0
      7548      7613      7507      7506       0.0       0.0       0.0       0.0
      7507      7508      7514      7513       0.0       0.0       0.0       0.0
      7613      7542      7508      7507       0.0       0.0       0.0       0.0
      7508      7509      7515      7514       0.0       0.0       0.0       0.0
      7542      7607      7509      7508       0.0       0.0       0.0       0.0
      7509      7510      7516      7515       0.0       0.0       0.0       0.0
      7607      7601      7510      7509       0.0       0.0       0.0       0.0
      7510      7511      7517      7516       0.0       0.0       0.0       0.0
      7601      7536      7511      7510       0.0       0.0       0.0       0.0
      7548      7506      7512      7606       0.0       0.0       0.0       0.0
      7512      7513      7519      7518       0.0       0.0       0.0       0.0
      7513      7514      7520      7519       0.0       0.0       0.0       0.0
      7514      7515      7521      7520       0.0       0.0       0.0       0.0
      7515      7516      7522      7521       0.0       0.0       0.0       0.0
      7516      7517      7523      7522       0.0       0.0       0.0       0.0
      7606      7512      7518      7612       0.0       0.0       0.0       0.0
      7518      7519      7525      7524       0.0       0.0       0.0       0.0
      7519      7520      7526      7525       0.0       0.0       0.0       0.0
      7520      7521      7527      7526       0.0       0.0       0.0       0.0
$ ... 35 like lines cut
*CONTROL_TERMINATION
$#  endtim    endcyc     dtmin    endeng    endmas     nosol
     200.0         01.00000E-8       0.0       0.0         0
*CONTROL_TIMESTEP
$#  dtinit    tssfac      isdo    tslimt     dt2ms      lctm     erode     ms1st
       0.1       0.6         0       0.0       0.0         2         0         0
*DATABASE_GLSTAT
$#      dt    binary      lcur     ioopt
       0.1         0         0         1
*DATABASE_BINARY_D3PLOT
$#      dt      lcdt      beam     npltc    psetid
       0.1         0         0         0         0
*DEFINE_CURVE
$#    lcid      sidr       sfa       sfo      offa      offo    dattyp     lcint
         1         0       1.0       1.0       0.0       0.0         0         0
$#                a1                  o1
                 0.0                 0.0
                 1.0                2.94
                 2.0                4.76
                 3.0                4.76
                 4.0                2.94
                 5.0                 0.0
                 6.0               -2.94
                 7.0               -4.76
                 8.0               -4.76
                 9.0               -2.94
                10.0                 0.0
                11.0                2.94
                12.0                4.76
                13.0                4.76
                14.0                2.94
                15.0                 0.0
                16.0               -2.94
                17.0               -4.76
                18.0               -4.76
                19.0               -2.94
$ ... 280 like lines cut
*DEFINE_CURVE
$#    lcid      sidr       sfa       sfo      offa      offo    dattyp     lcint
         2         0       1.0       1.0       0.0       0.0         0         0
$#                a1                  o1
                 0.0                0.01
              1000.0                0.01
*DEFINE_VECTOR
$#     vid        xt        yt        zt        xh        yh        zh       cid
         1       0.0       0.0       0.0       0.0       0.0       1.0         0
*END
